*version 9.1 1130953322
u 1014
V? 15
R? 50
D? 141
Q? 10
? 12
@libraries
@analysis
.TRAN 1 0 0 0
+0 100ns
+1 1000ns
@targets
@attributes
@translators
a 0 u 13 0 0 0 hln 100 PCBOARDS=PCB
a 0 u 13 0 0 0 hln 100 PSPICE=PSPICE
a 0 u 13 0 0 0 hln 100 XILINX=XILINX
@setup
unconnectedPins 0
connectViaLabel 0
connectViaLocalLabels 0
NoStim4ExtIFPortsWarnings 1
AutoGenStim4ExtIFPorts 1
@index
pageloc 1 0 8559 
@status
n 0 112:01:08:11:47:54;1328698074 e 
s 2832 112:01:11:13:05:10;1328961910 e 
c 112:01:08:11:47:51;1328698071
*page 1 0 970 720 iA
@ports
port 438 GND_ANALOG 20 300 h
@parts
part 425 r 60 240 h
a 0 u 13 0 15 25 hln 100 VALUE=100
a 0 sp 0 0 0 10 hlb 100 PART=r
a 0 s 0:13 0 0 0 hln 100 PKGTYPE=RC05
a 0 s 0:13 0 0 0 hln 100 GATE=
a 0 a 0:13 0 0 0 hln 100 PKGREF=R15
a 0 ap 9 0 15 0 hln 100 REFDES=R15
part 436 VDC 60 240 d
a 0 sp 0 0 22 37 hln 100 PART=VDC
a 1 u 13 0 -11 18 hcn 100 DC=5V
a 0 a 0:13 0 0 0 hln 100 PKGREF=V5
a 1 ap 9 0 24 7 hcn 100 REFDES=V5
part 426 r 150 300 v
a 0 sp 0 0 0 10 hlb 100 PART=r
a 0 s 0:13 0 0 0 hln 100 PKGTYPE=RC05
a 0 s 0:13 0 0 0 hln 100 GATE=
a 0 a 0:13 0 0 0 hln 100 PKGREF=R16
a 0 ap 9 0 15 0 hln 100 REFDES=R16
part 414 D1N4148 70 150 d
a 0 sp 11 0 15 25 hln 100 PART=D1N4148
a 0 s 0:13 0 0 0 hln 100 PKGTYPE=DO-35
a 0 s 0:13 0 0 0 hln 100 GATE=
a 0 a 0:13 0 0 0 hln 100 PKGREF=D53
a 0 ap 9 0 15 0 hln 100 REFDES=D53
part 412 D1N4148 120 150 d
a 0 sp 11 0 15 25 hln 100 PART=D1N4148
a 0 s 0:13 0 0 0 hln 100 PKGTYPE=DO-35
a 0 s 0:13 0 0 0 hln 100 GATE=
a 0 a 0:13 0 0 0 hln 100 PKGREF=D51
a 0 ap 9 0 15 0 hln 100 REFDES=D51
part 408 D1N4148 170 150 d
a 0 sp 11 0 15 25 hln 100 PART=D1N4148
a 0 s 0:13 0 0 0 hln 100 PKGTYPE=DO-35
a 0 s 0:13 0 0 0 hln 100 GATE=
a 0 a 0:13 0 0 0 hln 100 PKGREF=D47
a 0 ap 9 0 15 0 hln 100 REFDES=D47
part 415 D1N4148 70 120 d
a 0 sp 11 0 15 25 hln 100 PART=D1N4148
a 0 s 0:13 0 0 0 hln 100 PKGTYPE=DO-35
a 0 s 0:13 0 0 0 hln 100 GATE=
a 0 a 0:13 0 0 0 hln 100 PKGREF=D54
a 0 ap 9 0 15 0 hln 100 REFDES=D54
part 413 D1N4148 120 120 d
a 0 sp 11 0 15 25 hln 100 PART=D1N4148
a 0 s 0:13 0 0 0 hln 100 PKGTYPE=DO-35
a 0 s 0:13 0 0 0 hln 100 GATE=
a 0 a 0:13 0 0 0 hln 100 PKGREF=D52
a 0 ap 9 0 15 0 hln 100 REFDES=D52
part 409 D1N4148 170 120 d
a 0 sp 11 0 15 25 hln 100 PART=D1N4148
a 0 s 0:13 0 0 0 hln 100 PKGTYPE=DO-35
a 0 s 0:13 0 0 0 hln 100 GATE=
a 0 a 0:13 0 0 0 hln 100 PKGREF=D48
a 0 ap 9 0 15 0 hln 100 REFDES=D48
part 407 D1N4148 220 120 d
a 0 sp 11 0 15 25 hln 100 PART=D1N4148
a 0 s 0:13 0 0 0 hln 100 PKGTYPE=DO-35
a 0 s 0:13 0 0 0 hln 100 GATE=
a 0 a 0:13 0 0 0 hln 100 PKGREF=D46
a 0 ap 9 0 15 0 hln 100 REFDES=D46
part 403 D1N4148 260 120 d
a 0 sp 11 0 15 25 hln 100 PART=D1N4148
a 0 s 0:13 0 0 0 hln 100 PKGTYPE=DO-35
a 0 s 0:13 0 0 0 hln 100 GATE=
a 0 a 0:13 0 0 0 hln 100 PKGREF=D42
a 0 ap 9 0 15 0 hln 100 REFDES=D42
part 406 D1N4148 220 150 d
a 0 sp 11 0 15 25 hln 100 PART=D1N4148
a 0 s 0:13 0 0 0 hln 100 PKGTYPE=DO-35
a 0 s 0:13 0 0 0 hln 100 GATE=
a 0 a 0:13 0 0 0 hln 100 PKGREF=D45
a 0 ap 9 0 15 0 hln 100 REFDES=D45
part 404 D1N4148 260 90 d
a 0 sp 11 0 15 25 hln 100 PART=D1N4148
a 0 s 0:13 0 0 0 hln 100 PKGTYPE=DO-35
a 0 s 0:13 0 0 0 hln 100 GATE=
a 0 a 0:13 0 0 0 hln 100 PKGREF=D43
a 0 ap 9 0 15 0 hln 100 REFDES=D43
part 405 D1N4148 220 90 d
a 0 sp 11 0 15 25 hln 100 PART=D1N4148
a 0 s 0:13 0 0 0 hln 100 PKGTYPE=DO-35
a 0 s 0:13 0 0 0 hln 100 GATE=
a 0 a 0:13 0 0 0 hln 100 PKGREF=D44
a 0 ap 9 0 15 0 hln 100 REFDES=D44
part 410 D1N4148 170 90 d
a 0 sp 11 0 15 25 hln 100 PART=D1N4148
a 0 s 0:13 0 0 0 hln 100 PKGTYPE=DO-35
a 0 s 0:13 0 0 0 hln 100 GATE=
a 0 a 0:13 0 0 0 hln 100 PKGREF=D49
a 0 ap 9 0 15 0 hln 100 REFDES=D49
part 411 D1N4148 120 90 d
a 0 sp 11 0 15 25 hln 100 PART=D1N4148
a 0 s 0:13 0 0 0 hln 100 PKGTYPE=DO-35
a 0 s 0:13 0 0 0 hln 100 GATE=
a 0 a 0:13 0 0 0 hln 100 PKGREF=D50
a 0 ap 9 0 15 0 hln 100 REFDES=D50
part 416 D1N4148 70 90 d
a 0 sp 11 0 15 25 hln 100 PART=D1N4148
a 0 s 0:13 0 0 0 hln 100 PKGTYPE=DO-35
a 0 s 0:13 0 0 0 hln 100 GATE=
a 0 a 0:13 0 0 0 hln 100 PKGREF=D55
a 0 ap 9 0 15 0 hln 100 REFDES=D55
part 424 D1N4148 260 60 d
a 0 sp 11 0 15 25 hln 100 PART=D1N4148
a 0 s 0:13 0 0 0 hln 100 PKGTYPE=DO-35
a 0 s 0:13 0 0 0 hln 100 GATE=
a 0 a 0:13 0 0 0 hln 100 PKGREF=D60
a 0 ap 9 0 15 0 hln 100 REFDES=D60
part 422 D1N4148 220 60 d
a 0 sp 11 0 15 25 hln 100 PART=D1N4148
a 0 s 0:13 0 0 0 hln 100 PKGTYPE=DO-35
a 0 s 0:13 0 0 0 hln 100 GATE=
a 0 a 0:13 0 0 0 hln 100 PKGREF=D59
a 0 ap 9 0 15 0 hln 100 REFDES=D59
part 420 D1N4148 170 60 d
a 0 sp 11 0 15 25 hln 100 PART=D1N4148
a 0 s 0:13 0 0 0 hln 100 PKGTYPE=DO-35
a 0 s 0:13 0 0 0 hln 100 GATE=
a 0 a 0:13 0 0 0 hln 100 PKGREF=D58
a 0 ap 9 0 15 0 hln 100 REFDES=D58
part 417 D1N4148 120 60 d
a 0 sp 11 0 15 25 hln 100 PART=D1N4148
a 0 s 0:13 0 0 0 hln 100 PKGTYPE=DO-35
a 0 s 0:13 0 0 0 hln 100 GATE=
a 0 a 0:13 0 0 0 hln 100 PKGREF=D56
a 0 ap 9 0 15 0 hln 100 REFDES=D56
part 419 D1N4148 70 60 d
a 0 sp 11 0 15 25 hln 100 PART=D1N4148
a 0 s 0:13 0 0 0 hln 100 PKGTYPE=DO-35
a 0 s 0:13 0 0 0 hln 100 GATE=
a 0 a 0:13 0 0 0 hln 100 PKGREF=D57
a 0 ap 9 0 15 0 hln 100 REFDES=D57
part 437 VDC 150 60 u
a 0 sp 0 0 22 37 hln 100 PART=VDC
a 0 a 0:13 0 0 0 hln 100 PKGREF=V6
a 1 ap 9 0 24 7 hcn 100 REFDES=V6
a 1 u 13 0 -11 18 hcn 100 DC=9V
part 427 Q2N6059 110 240 h
a 0 sp 11 0 0 60 hln 100 PART=Q2N6059
a 0 s 0:13 0 0 0 hln 100 PKGTYPE=
a 0 a 0:13 0 0 0 hln 100 PKGREF=Q5
a 0 ap 9 0 -1 -3 hln 100 REFDES=Q5
part 428 r 70 220 v
a 0 sp 0 0 0 10 hlb 100 PART=r
a 0 s 0:13 0 0 0 hln 100 PKGTYPE=RC05
a 0 s 0:13 0 0 0 hln 100 GATE=
a 0 a 0:13 0 0 0 hln 100 PKGREF=R17
a 0 ap 9 0 15 0 hln 100 REFDES=R17
a 0 u 13 0 15 25 hln 100 VALUE=26
part 429 r 120 220 v
a 0 sp 0 0 0 10 hlb 100 PART=r
a 0 s 0:13 0 0 0 hln 100 PKGTYPE=RC05
a 0 s 0:13 0 0 0 hln 100 GATE=
a 0 a 0:13 0 0 0 hln 100 PKGREF=R18
a 0 ap 9 0 15 0 hln 100 REFDES=R18
a 0 u 13 0 15 25 hln 100 VALUE=26
part 431 r 170 220 v
a 0 sp 0 0 0 10 hlb 100 PART=r
a 0 s 0:13 0 0 0 hln 100 PKGTYPE=RC05
a 0 s 0:13 0 0 0 hln 100 GATE=
a 0 a 0:13 0 0 0 hln 100 PKGREF=R19
a 0 ap 9 0 15 0 hln 100 REFDES=R19
a 0 u 13 0 15 25 hln 100 VALUE=26
part 433 r 220 220 v
a 0 sp 0 0 0 10 hlb 100 PART=r
a 0 s 0:13 0 0 0 hln 100 PKGTYPE=RC05
a 0 s 0:13 0 0 0 hln 100 GATE=
a 0 a 0:13 0 0 0 hln 100 PKGREF=R20
a 0 ap 9 0 15 0 hln 100 REFDES=R20
a 0 u 13 0 15 25 hln 100 VALUE=26
part 402 D1N4148 260 150 d
a 0 sp 11 0 15 25 hln 100 PART=D1N4148
a 0 s 0:13 0 0 0 hln 100 PKGTYPE=DO-35
a 0 s 0:13 0 0 0 hln 100 GATE=
a 0 a 0:13 0 0 0 hln 100 PKGREF=D41
a 0 ap 9 0 15 0 hln 100 REFDES=D41
part 435 r 260 220 v
a 0 sp 0 0 0 10 hlb 100 PART=r
a 0 s 0:13 0 0 0 hln 100 PKGTYPE=RC05
a 0 s 0:13 0 0 0 hln 100 GATE=
a 0 a 0:13 0 0 0 hln 100 PKGREF=R21
a 0 ap 9 0 15 0 hln 100 REFDES=R21
a 0 u 13 0 15 25 hln 100 VALUE=60
part 1 titleblk 970 720 h
a 1 s 13 0 350 10 hcn 100 PAGESIZE=A
a 1 s 13 0 180 60 hcn 100 PAGETITLE=
a 1 s 13 0 340 95 hrn 100 PAGECOUNT=1
a 1 s 13 0 300 95 hrn 100 PAGENO=1
part 1013 iMarker 260 180 h
a 0 s 0 0 0 0 hln 100 PROBEVAR=
a 0 a 0 0 6 20 hlb 100 LABEL=11
@conn
w 736
a 0 up 0:33 0 0 0 hln 100 V=
s 100 240 110 240 735
a 0 up 33 0 105 239 hct 100 V=
w 368
a 0 up 0:33 0 0 0 hln 100 V=
s 150 270 150 260 788
a 0 up 33 0 152 265 hlt 100 V=
w 715
a 0 up 0:33 0 0 0 hln 100 V=
s 20 300 150 300 693
s 20 300 20 240 745
s 20 240 20 20 919
a 0 up 33 0 22 130 hlt 100 V=
s 150 20 20 20 714
w 711
a 0 up 0:33 0 0 0 hln 100 V=
s 150 60 170 60 713
s 70 60 120 60 359
s 120 60 150 60 418
s 170 60 220 60 421
a 0 up 33 0 195 59 hct 100 V=
s 220 60 260 60 351
w 780
a 0 up 0:33 0 0 0 hln 100 V=
s 170 220 220 220 758
s 220 220 260 220 755
s 120 220 150 220 740
s 70 220 120 220 381
a 0 up 33 0 95 219 hct 100 V=
s 150 220 170 220 784
@junction
j 170 180
+ p 431 2
+ p 408 2
j 120 180
+ p 429 2
+ p 412 2
j 70 180
+ p 428 2
+ p 414 2
j 260 180
+ p 435 2
+ p 402 2
j 70 150
+ p 414 1
+ p 415 2
j 120 150
+ p 412 1
+ p 413 2
j 170 150
+ p 408 1
+ p 409 2
j 260 150
+ p 402 1
+ p 403 2
j 70 120
+ p 415 1
+ p 416 2
j 120 120
+ p 413 1
+ p 411 2
j 170 120
+ p 409 1
+ p 410 2
j 220 150
+ p 407 2
+ p 406 1
j 220 120
+ p 407 1
+ p 405 2
j 260 120
+ p 403 1
+ p 404 2
j 220 180
+ p 406 2
+ p 433 2
j 260 90
+ p 404 1
+ p 424 2
j 220 90
+ p 405 1
+ p 422 2
j 170 90
+ p 410 1
+ p 420 2
j 120 90
+ p 411 1
+ p 417 2
j 70 90
+ p 416 1
+ p 419 2
j 170 220
+ p 431 1
+ w 780
j 220 220
+ p 433 1
+ w 780
j 260 220
+ p 435 1
+ w 780
j 120 220
+ p 429 1
+ w 780
j 150 220
+ p 427 c
+ w 780
j 70 220
+ p 428 1
+ w 780
j 110 240
+ p 427 b
+ w 736
j 100 240
+ p 425 2
+ w 736
j 150 270
+ p 427 e
+ w 368
j 20 300
+ s 438
+ w 715
j 150 20
+ p 437 -
+ w 715
j 150 60
+ p 437 +
+ w 711
j 170 60
+ p 420 1
+ w 711
j 120 60
+ p 417 1
+ w 711
j 70 60
+ p 419 1
+ w 711
j 220 60
+ p 422 1
+ w 711
j 260 60
+ p 424 1
+ w 711
j 60 240
+ p 425 1
+ p 436 +
j 20 240
+ p 436 -
+ w 715
j 150 260
+ p 426 2
+ w 368
j 150 300
+ p 426 1
+ w 715
j 260 180
+ p 1013 pin1
+ p 435 2
j 260 180
+ p 1013 pin1
+ p 402 2
@attributes
a 0 s 0:13 0 0 0 hln 100 PAGETITLE=
a 0 s 0:13 0 0 0 hln 100 PAGENO=1
a 0 s 0:13 0 0 0 hln 100 PAGESIZE=A
a 0 s 0:13 0 0 0 hln 100 PAGECOUNT=1
@graphics
